T41/input_data/WP5/A_KPC_10.m
% Distribution_Network_KPC_10
function mpc = A_KPC_10()


%% MATPOWER Case Format : Version 2
mpc.version = '2';

%%-----  Power Flow Data  -----%%
%% system MVA base
mpc.baseMVA = 100;

%% bus data													
%	bus_i	type	Pd	Qd	Gs	Bs	area	Vm	Va	baseKV	zone	Vmax	Vmin
mpc.bus = [													
	2	1	0	0	0	0	1	1	0	10	1	1.1	0.9	;
	5	1	0	0	0	0	1	1	0	10	1	1.1	0.9	;
	8	1	0	0	0	0	1	1	0	10	1	1.1	0.9	;
	12	1	0	0	0	0	1	1	0	10	1	1.1	0.9	;
	11	1	0	0	0	0	1	1	0	10	1	1.1	0.9	;
	13	4	0	0	0	0	1	1	0	10	1	1.1	0.9	;
	14	1	0	0	0	0	1	1	0	10	1	1.1	0.9	;
	15	1	0	0	0	0	1	1	0	10	1	1.1	0.9	;
	19	1	0	0	0	0	1	1	0	10	1	1.1	0.9	;
	21	1	0	0	0	0	1	1	0	10	1	1.1	0.9	;
	24	1	0	0	0	0	1	1	0	10	1	1.1	0.9	;
	25	1	0	0	0	0	1	1	0	10	1	1.1	0.9	;
	28	1	0	0	0	0	1	1	0	10	1	1.1	0.9	;
	32	1	0	0	0	0	1	1	0	10	1	1.1	0.9	;
	33	1	0	0	0	0	1	1	0	10	1	1.1	0.9	;
	38	1	0	0	0	0	1	1	0	10	1	1.1	0.9	;
	39	1	0	0	0	0	1	1	0	10	1	1.1	0.9	;
	42	1	0	0	0	0	1	1	0	10	1	1.1	0.9	;
	44	1	0	0	0	0	1	1	0	10	1	1.1	0.9	;
	46	1	0	0	0	0	1	1	0	10	1	1.1	0.9	;
	47	1	0	0	0	0	1	1	0	10	1	1.1	0.9	;
	48	1	0	0	0	0	1	1	0	10	1	1.1	0.9	;
	51	1	0	0	0	0	1	1	0	10	1	1.1	0.9	;
	52	1	0	0	0	0	1	1	0	10	1	1.1	0.9	;
	53	1	0	0	0	0	1	1	0	10	1	1.1	0.9	;
	54	1	0	0	0	0	1	1	0	10	1	1.1	0.9	;
	55	1	0	0	0	0	1	1	0	10	1	1.1	0.9	;
	56	1	0	0	0	0	1	1	0	10	1	1.1	0.9	;
	57	1	0	0	0	0	1	1	0	10	1	1.1	0.9	;
	58	1	0	0	0	0	1	1	0	10	1	1.1	0.9	;
	59	1	0	0	0	0	1	1	0	10	1	1.1	0.9	;
	60	1	0	0	0	0	1	1	0	10	1	1.1	0.9	;
	61	1	0	0	0	0	1	1	0	10	1	1.1	0.9	;
	62	1	0	0	0	0	1	1	0	10	1	1.1	0.9	;
	72	1	0	0	0	0	1	1	0	10	1	1.1	0.9	;
	73	1	0	0	0	0	1	1	0	10	1	1.1	0.9	;
	74	1	0	0	0	0	1	1	0	10	1	1.1	0.9	;
	81	1	0	0	0	0	1	1	0	10	1	1.1	0.9	;
	88	1	0	0	0	0	1	1	0	10	1	1.1	0.9	;
	100	1	0.091428571	-0.026666667	0	0	1	1	0	0.4	1	1.1	0.9	;
	101	1	0.057142857	-0.016666667	0	0	1	1	0	0.4	1	1.1	0.9	;
	102	4	0	0	0	0	1	1	0	0.4	1	1.1	0.9	;
	103	1	0.015606936	-0.006358382	0	0	1	1	0	0.4	1	1.1	0.9	;
	104	1	0.039017341	-0.015895954	0	0	1	1	0	0.4	1	1.1	0.9	;
	105	1	0.098323699	-0.040057803	0	0	1	1	0	0.4	1	1.1	0.9	;
	106	1	0.039017341	-0.015895954	0	0	1	1	0	0.4	1	1.1	0.9	;
	107	1	0.040605096	-0.013535032	0	0	1	1	0	0.4	1	1.1	0.9	;
	108	1	0.064968153	-0.021656051	0	0	1	1	0	0.4	1	1.1	0.9	;
	109	1	0.091428571	-0.026666667	0	0	1	1	0	0.4	1	1.1	0.9	;
	110	1	0.040605096	-0.013535032	0	0	1	1	0	0.4	1	1.1	0.9	;
	111	1	0.064968153	-0.021656051	0	0	1	1	0	0.4	1	1.1	0.9	;
	112	1	0.064968153	-0.021656051	0	0	1	1	0	0.4	1	1.1	0.9	;
	113	1	0.040605096	-0.013535032	0	0	1	1	0	0.4	1	1.1	0.9	;
	114	1	0.064968153	-0.021656051	0	0	1	1	0	0.4	1	1.1	0.9	;
	115	1	0.064968153	-0.021656051	0	0	1	1	0	0.4	1	1.1	0.9	;
	116	1	0.040605096	-0.013535032	0	0	1	1	0	0.4	1	1.1	0.9	;
	117	1	0.167292994	-0.055764331	0	0	1	1	0	0.4	1	1.1	0.9	;
	118	1	0.064968153	-0.021656051	0	0	1	1	0	0.4	1	1.1	0.9	;
	119	1	0.040605096	-0.013535032	0	0	1	1	0	0.4	1	1.1	0.9	;
	120	1	0.025987261	-0.00866242	0	0	1	1	0	0.4	1	1.1	0.9	;
	121	1	0.040605096	-0.013535032	0	0	1	1	0	0.4	1	1.1	0.9	;
	122	1	0.102324841	-0.03410828	0	0	1	1	0	0.4	1	1.1	0.9	;
	123	1	0.024296296	-0.001185185	0	0	1	1	0	0.4	1	1.1	0.9	;
	124	1	0.060740741	-0.002962963	0	0	1	1	0	0.4	1	1.1	0.9	;
	125	1	0.024296296	-0.001185185	0	0	1	1	0	0.4	1	1.1	0.9	;
	126	1	0.037962963	-0.001851852	0	0	1	1	0	0.4	1	1.1	0.9	;
	127	1	0.095666667	-0.004666667	0	0	1	1	0	0.4	1	1.1	0.9	;
	128	1	0.095666667	-0.004666667	0	0	1	1	0	0.4	1	1.1	0.9	;
	129	1	0.095666667	-0.004666667	0	0	1	1	0	0.4	1	1.1	0.9	;
	130	1	0.060740741	-0.002962963	0	0	1	1	0	0.4	1	1.1	0.9	;
	131	1	0.037962963	-0.001851852	0	0	1	1	0	0.4	1	1.1	0.9	;
	132	1	0.025987261	-0.00866242	0	0	1	1	0	0.4	1	1.1	0.9	;
	133	1	0.064968153	-0.021656051	0	0	1	1	0	0.4	1	1.1	0.9	;
	134	1	0.095666667	-0.004666667	0	0	1	1	0	0.4	1	1.1	0.9	;
	135	1	0.095666667	-0.004666667	0	0	1	1	0	0.4	1	1.1	0.9	;
	136	1	0.095666667	-0.004666667	0	0	1	1	0	0.4	1	1.1	0.9	;
	137	3	0	0	0	0	1	1	0	10	1	1.1	0.9	;
	138	1	0	0	0	0	1	1	0	10	1	1.1	0.9	;
	139	3	0	0	0	0	1	1	0	10	1	1.1	0.9	;
	140	1	0	0	0	0	1	1	0	10	1	1.1	0.9	;
	141	4	0	0	0	0	1	1	0	10	1	1.1	0.9	;
	142	3	0	0	0	0	1	1	0	10	1	1.1	0.9	;
	143	4	0	0	0	0	1	1	0	10	1	1.1	0.9	;
	144	3	0	0	0	0	1	1	0	10	1	1.1	0.9	;
	145	1	0.039017341	-0.015895954	0	0	1	1	0	0.4	1	1.1	0.9	;
	146	1	0.039017341	-0.015895954	0	0	1	1	0	0.4	1	1.1	0.9	;
];													

%% branch data														
%	fbus	tbus	r	x	b	rateA (summer)	rateB (spring)	rateC (winter)	tap ratio	shift angle	status	angmin	angmax	step_size	actTap	minTap	maxTap	normalTap	length (km)
mpc.branch = [														
2	124	2.875	10	0	0.4	0.4	0.4	1	0	1	-360	360;
5	127	1.46031746	6.349206349	0	0.63	0.63	0.63	0.952380952	0	1	-360	360;
8	107	5.2	16	0	0.25	0.25	0.25	0.952380952	0	1	-360	360;
11	108	2.875	10	0	0.4	0.4	0.4	0.952380952	0	1	-360	360;
12	145	5.2	16	0	0.25	0.25	0.25	0.952380952	0	1	-360	360;
14	118	2.875	10	0	0.4	0.4	0.4	1	0	1	-360	360;
15	103	17.5	40	0	0.1	0.1	0.1	1	0	1	-360	360;
19	122	1.46031746	6.349206349	0	0.63	0.63	0.63	0.952380952	0	1	-360	360;
21	123	9.1796875	25	0	0.16	0.16	0.16	0.952380952	0	1	-360	360;
24	110	5.2	16	0	0.25	0.25	0.25	1	0	1	-360	360;
25	116	5.2	16	0	0.25	0.25	0.25	0.952380952	0	1	-360	360;
28	135	1.46031746	6.349206349	0	0.63	0.63	0.63	0.952380952	0	1	-360	360;
32	126	5.2	16	0	0.25	0.25	0.25	1	0	1	-360	360;
33	119	5.2	16	0	0.25	0.25	0.25	1	0	1	-360	360;
38	120	9.1796875	25	0	0.16	0.16	0.16	0.952380952	0	1	-360	360;
39	100	2.875	10	0	0.4	0.4	0.4	0.952380952	0	1	-360	360;
42	129	1.46031746	6.349206349	0	0.63	0.63	0.63	0.952380952	0	1	-360	360;
44	111	2.875	10	0	0.4	0.4	0.4	1	0	1	-360	360;
46	121	5.2	16	0	0.25	0.25	0.25	0.952380952	0	1	-360	360;
47	114	2.875	10	0	0.4	0.4	0.4	0.952380952	0	1	-360	360;
48	104	5.2	16	0	0.25	0.25	0.25	0.952380952	0	1	-360	360;
51	133	2.875	10	0	0.4	0.4	0.4	1	0	1	-360	360;
52	112	2.875	10	0	0.4	0.4	0.4	1	0	1	-360	360;
53	125	9.1796875	25	0	0.16	0.16	0.16	0.952380952	0	1	-360	360;
54	128	1.46031746	6.349206349	0	0.63	0.63	0.63	0.952380952	0	1	-360	360;
55	105	1.46031746	6.349206349	0	0.63	0.63	0.63	0.952380952	0	1	-360	360;
56	132	9.1796875	25	0	0.16	0.16	0.16	0.952380952	0	1	-360	360;
57	115	2.875	10	0	0.4	0.4	0.4	1	0	1	-360	360;
58	106	5.2	16	0	0.25	0.25	0.25	0.952380952	0	1	-360	360;
59	101	5.2	16	0	0.25	0.25	0.25	0.952380952	0	1	-360	360;
60	109	2.875	10	0	0.4	0.4	0.4	1	0	1	-360	360;
61	130	2.875	10	0	0.4	0.4	0.4	1	0	1	-360	360;
62	131	5.2	16	0	0.25	0.25	0.25	0.952380952	0	1	-360	360;
72	146	5.2	16	0	0.25	0.25	0.25	0.952380952	0	1	-360	360;
73	136	1.46031746	6.349206349	0	0.63	0.63	0.63	0.952380952	0	1	-360	360;
74	117	2.875	10	0	0.4	0.4	0.4	0.952380952	0	1	-360	360;
74	117	1.46031746	6.349206349	0	0.63	0.63	0.63	0.952380952	0	1	-360	360;
81	134	1.46031746	6.349206349	0	0.63	0.63	0.63	0.952380952	0	1	-360	360;
88	113	5.2	16	0	0.25	0.25	0.25	0.952380952	0	1	-360	360;
2	21	0.081164	0.048068	3.11257E-05	6.228	6.228	6.228	0	0	1	-360	360;
5	73	0.087962	0.052094	3.37327E-05	6.228	6.228	6.228	0	0	1	-360	360;
8	140	0.0772	0.04	5.4E-05	4.4115	4.4115	4.4115	0	0	1	-360	360;
8	56	0.05871	0.03477	2.25148E-05	6.228	6.228	6.228	0	0	1	-360	360;
11	60	0.086726	0.051362	3.32587E-05	6.228	6.228	6.228	0	0	0	-360	360;
12	72	0.077007	0.0399	5.3865E-05	4.4115	4.4115	4.4115	0	0	1	-360	360;
14	46	0.02369	0.01403	9.08491E-06	6.228	6.228	6.228	0	0	1	-360	360;
15	12	0.073533	0.0381	5.1435E-05	4.4115	4.4115	4.4115	0	0	1	-360	360;
19	42	0.087756	0.051972	3.36537E-05	6.228	6.228	6.228	0	0	0	-360	360;
21	62	0.095378	0.056486	3.65767E-05	6.228	6.228	6.228	0	0	1	-360	360;
24	25	0.062006	0.036722	2.37788E-05	6.228	6.228	6.228	0	0	1	-360	360;
25	57	0.076648	0.0286	4.29E-05	3.633	3.633	3.633	0	0	1	-360	360;
28	81	0.095172	0.056364	3.64977E-05	6.228	6.228	6.228	0	0	1	-360	360;
32	53	0.069094	0.0358	4.833E-05	4.4115	4.4115	4.4115	0	0	1	-360	360;
33	32	0.090434	0.053558	3.46807E-05	6.228	6.228	6.228	0	0	0	-360	360;
33	14	0.064066	0.037942	2.45688E-05	6.228	6.228	6.228	0	0	1	-360	360;
38	19	0.04223	0.02501	1.61948E-05	6.228	6.228	6.228	0	0	1	-360	360;
39	59	0.031073	0.0161	2.1735E-05	4.4115	4.4115	4.4115	0	0	1	-360	360;
42	54	0.089512	0.0334	4.008E-05	3.7195	3.7195	3.7195	0	0	1	-360	360;
44	24	0.028564	0.0148	1.9388E-05	6.055	6.055	6.055	0	0	1	-360	360;
46	38	0.092906	0.055022	3.56287E-05	6.228	6.228	6.228	0	0	1	-360	360;
47	19	0.018128	0.010736	6.95193E-06	6.228	6.228	6.228	0	0	1	-360	360;
48	15	0.092494	0.051635	3.68185E-05	5.9685	5.9685	5.9685	0	0	1	-360	360;
51	32	0.114742	0.067954	4.40026E-05	6.228	6.228	6.228	0	0	0	-360	360;
52	44	0.03088	0.016	2.096E-05	6.055	6.055	6.055	0	0	1	-360	360;
53	2	0.116184	0.068808	4.45556E-05	6.228	6.228	6.228	0	0	1	-360	360;
54	5	0.079722	0.047214	3.05727E-05	6.228	6.228	6.228	0	0	1	-360	360;
55	48	0.09071	0.047	6.345E-05	4.4115	4.4115	4.4115	0	0	1	-360	360;
56	14	0.060358	0.035746	2.31468E-05	6.228	6.228	6.228	0	0	1	-360	360;
56	51	0.100167	0.0519	7.0065E-05	4.4115	4.4115	4.4115	0	0	1	-360	360;
57	74	0.130192	0.077104	4.99275E-05	6.228	6.228	6.228	0	0	0	-360	360;
58	55	0.016791	0.0087	1.1745E-05	4.4115	4.4115	4.4115	0	0	1	-360	360;
58	57	0.038986	0.0202	2.727E-05	4.4115	4.4115	4.4115	0	0	0	-360	360;
59	58	0.055198	0.0286	4.7476E-05	4.2385	4.2385	4.2385	0	0	0	-360	360;
60	138	0.086078	0.0446	6.021E-05	4.4115	4.4115	4.4115	0	0	1	-360	360;
61	42	0.073336	0.043432	2.81237E-05	6.228	6.228	6.228	0	0	1	-360	360;
62	61	0.073336	0.043432	2.81237E-05	6.228	6.228	6.228	0	0	1	-360	360;
73	28	0.04738	0.02806	1.81698E-05	6.228	6.228	6.228	0	0	1	-360	360;
74	47	0.07622	0.04514	2.92297E-05	6.228	6.228	6.228	0	0	1	-360	360;
81	142	0.095172	0.056364	3.64977E-05	6.228	6.228	6.228	0	0	1	-360	360;
88	14	0.070864	0.041968	2.71757E-05	6.228	6.228	6.228	0	0	1	-360	360;
88	52	0.022248	0.013176	8.53192E-06	6.228	6.228	6.228	0	0	1	-360	360;
137	39	0.0309	0.0183	1.18499E-05	6.228	6.228	6.228	0	0	1	-360	360;
138	59	0.093524	0.055388	3.58657E-05	6.228	6.228	6.228	0	0	1	-360	360;
139	11	0.2781	0.1647	0.000106649	6.228	6.228	6.228	0	0	1	-360	360;
140	11	0.00043466	0.00025742	1.66688E-07	6.228	6.228	6.228	0	0	1	-360	360;
141	5	0.073336	0.043432	2.81237E-05	6.228	6.228	6.228	0	0	0	-360	360;
144	48	0.140286	0.083082	5.37985E-05	6.228	6.228	6.228	0	0	1	-360	360;
];

%% generator data
%	bus	Pg	Qg	Qmax	Qmin	Vg	mBase	status	Pmax	Pmin	Pc1	Pc2	Qc1min	Qc1max	Qc2min	Qc2max	ramp_agc	ramp_10	ramp_30	ramp_q	apf	
mpc.gen = [																						
	137	0	0	8	-8	1.062	100	1	8	-8	0	0	0	0	0	0	0	0	0	0	0	;
	139	0	0	16	-16	1.045	100	1	16	-16	0	0	0	0	0	0	0	0	0	0	0	;
	144	0	0	8	-8	1.062	100	1	8	-8	0	0	0	0	0	0	0	0	0	0	0	;
	142	0	0	16	-16	1.042	100	1	16	-16	0	0	0	0	0	0	0	0	0	0	0	;
];																						
